<?xml version="1.0" encoding="UTF-8"?>

<!-- generated on 2022-10-29 12:36:44 by Eclipse SUMO netedit Version 1.14.1
<configuration xmlns:xsi="http://www.w3.org/2001/XMLSchema-instance" xsi:noNamespaceSchemaLocation="http://sumo.dlr.de/xsd/netconvertConfiguration.xsd">

    <input>
        <sumo-net-file value="C:\Users\tiend\Downloads\vd\vd001\vd001.net.xml"/>
    </input>

    <output>
        <output-file value="C:\Users\tiend\Downloads\vd\vd001\vd001.net.xml"/>
    </output>

    <processing>
        <geometry.min-radius.fix.railways value="false"/>
        <geometry.max-grade.fix value="false"/>
        <offset.disable-normalization value="true"/>
        <lefthand value="false"/>
    </processing>

    <junctions>
        <no-internal-links value="false"/>
        <no-turnarounds value="true"/>
        <junctions.corner-detail value="5"/>
        <junctions.limit-turn-speed value="5.5"/>
        <rectangular-lane-cut value="false"/>
    </junctions>

    <pedestrian>
        <walkingareas value="false"/>
    </pedestrian>

</configuration>
-->

<net version="1.9" junctionCornerDetail="5" limitTurnSpeed="5.50" xmlns:xsi="http://www.w3.org/2001/XMLSchema-instance" xsi:noNamespaceSchemaLocation="http://sumo.dlr.de/xsd/net_file.xsd">

    <location netOffset="0.00,0.00" convBoundary="-25.00,50.00,475.00,325.00" origBoundary="-10000000000.00,-10000000000.00,10000000000.00,10000000000.00" projParameter="!"/>

    <edge id=":J0_0" function="internal">
        <lane id=":J0_0_0" index="0" disallow="pedestrian" speed="7.10" length="10.97" shape="-26.60,80.20 -26.18,77.23 -24.90,75.10 -22.77,73.83 -19.80,73.40"/>
    </edge>
    <edge id=":J0_1" function="internal">
        <lane id=":J0_1_0" index="0" disallow="pedestrian" speed="5.37" length="5.81" shape="-19.80,76.60 -21.38,76.83 -22.50,77.50 -23.18,78.62 -23.40,80.20"/>
    </edge>
    <edge id=":J0_c0" function="crossing" crossingEdges="E39 -E39">
        <lane id=":J0_c0_0" index="0" allow="pedestrian" speed="1.00" length="6.40" width="4.00" shape="-21.80,78.20 -28.20,78.20"/>
    </edge>
    <edge id=":J0_c1" function="crossing" crossingEdges="E0 -E39">
        <lane id=":J0_c1_0" index="0" allow="pedestrian" speed="1.00" length="9.05" width="4.00" shape="-24.63,68.97 -31.03,75.37"/>
    </edge>
    <edge id=":J0_c2" function="crossing" crossingEdges="E0 -E0">
        <lane id=":J0_c2_0" index="0" allow="pedestrian" speed="1.00" length="6.40" width="4.00" shape="-21.80,71.80 -21.80,78.20"/>
    </edge>
    <edge id=":J0_w0" function="walkingarea">
        <lane id=":J0_w0_0" index="0" allow="pedestrian" speed="1.00" length="8.98" width="4.00" shape="-23.21,70.39 -19.80,69.80 -23.12,70.06 -25.76,70.86 -27.76,72.24 -29.14,74.24 -29.94,76.88 -30.20,80.20 -30.20,80.20 -28.20,80.20 -27.97,77.63 -27.27,75.53 -26.10,73.90 -24.47,72.73 -22.37,72.03"/>
    </edge>
    <edge id=":J0_w1" function="walkingarea">
        <lane id=":J0_w1_0" index="0" allow="pedestrian" speed="1.00" length="1.73" width="4.00" shape="-21.80,80.20 -19.80,80.20 -19.80,80.20 -19.80,78.20 -20.41,78.26 -20.91,78.42 -21.30,78.70 -21.58,79.09 -21.74,79.59"/>
    </edge>
    <edge id=":J1_0" function="internal">
        <lane id=":J1_0_0" index="0" disallow="pedestrian" speed="13.89" length="4.00" shape="-10.50,76.60 -14.50,76.60"/>
    </edge>
    <edge id=":J1_1" function="internal">
        <lane id=":J1_1_0" index="0" disallow="pedestrian" speed="13.89" length="4.00" shape="-14.50,73.40 -10.50,73.40"/>
    </edge>
    <edge id=":J1_c0" function="crossing" crossingEdges="E1 -E1">
        <lane id=":J1_c0_0" index="0" allow="pedestrian" speed="1.00" length="6.40" width="4.00" shape="-12.50,71.80 -12.50,78.20"/>
    </edge>
    <edge id=":J1_c1" function="crossing" crossingEdges="-E0 E0">
        <lane id=":J1_c1_0" index="0" allow="pedestrian" speed="1.00" length="6.40" width="4.00" shape="-12.50,78.20 -12.50,71.80"/>
    </edge>
    <edge id=":J1_w0" function="walkingarea">
        <lane id=":J1_w0_0" index="0" allow="pedestrian" speed="1.00" length="2.59" width="4.00" shape="-10.50,78.20 -14.50,78.20 -14.50,80.20 -10.50,80.20 -10.50,78.20 -14.50,78.20"/>
    </edge>
    <edge id=":J1_w1" function="walkingarea">
        <lane id=":J1_w1_0" index="0" allow="pedestrian" speed="1.00" length="2.59" width="4.00" shape="-14.50,71.80 -10.50,71.80 -10.50,69.80 -14.50,69.80 -14.50,71.80 -10.50,71.80"/>
    </edge>
    <edge id=":J10_0" function="internal">
        <lane id=":J10_0_0" index="0" disallow="pedestrian" speed="13.89" length="4.00" shape="102.00,76.60 98.00,76.60"/>
    </edge>
    <edge id=":J10_1" function="internal">
        <lane id=":J10_1_0" index="0" disallow="pedestrian" speed="13.89" length="4.00" shape="98.00,73.40 102.00,73.40"/>
    </edge>
    <edge id=":J10_c0" function="crossing" crossingEdges="E10 -E10">
        <lane id=":J10_c0_0" index="0" allow="pedestrian" speed="1.00" length="6.40" width="4.00" shape="100.00,71.80 100.00,78.20"/>
    </edge>
    <edge id=":J10_c1" function="crossing" crossingEdges="-E9 E9">
        <lane id=":J10_c1_0" index="0" allow="pedestrian" speed="1.00" length="6.40" width="4.00" shape="100.00,78.20 100.00,71.80"/>
    </edge>
    <edge id=":J10_w0" function="walkingarea">
        <lane id=":J10_w0_0" index="0" allow="pedestrian" speed="1.00" length="2.59" width="4.00" shape="102.00,78.20 98.00,78.20 98.00,80.20 102.00,80.20 102.00,78.20 98.00,78.20"/>
    </edge>
    <edge id=":J10_w1" function="walkingarea">
        <lane id=":J10_w1_0" index="0" allow="pedestrian" speed="1.00" length="2.59" width="4.00" shape="98.00,71.80 102.00,71.80 102.00,69.80 98.00,69.80 98.00,71.80 102.00,71.80"/>
    </edge>
    <edge id=":J100_0" function="internal">
        <lane id=":J100_0_0" index="0" disallow="pedestrian" speed="13.89" length="4.00" shape="214.50,139.10 210.50,139.10"/>
    </edge>
    <edge id=":J100_1" function="internal">
        <lane id=":J100_1_0" index="0" disallow="pedestrian" speed="13.89" length="4.00" shape="210.50,135.90 214.50,135.90"/>
    </edge>
    <edge id=":J100_c0" function="crossing" crossingEdges="E99 -E99">
        <lane id=":J100_c0_0" index="0" allow="pedestrian" speed="1.00" length="6.40" width="4.00" shape="212.50,134.30 212.50,140.70"/>
    </edge>
    <edge id=":J100_c1" function="crossing" crossingEdges="-E98 E98">
        <lane id=":J100_c1_0" index="0" allow="pedestrian" speed="1.00" length="6.40" width="4.00" shape="212.50,140.70 212.50,134.30"/>
    </edge>
    <edge id=":J100_w0" function="walkingarea">
        <lane id=":J100_w0_0" index="0" allow="pedestrian" speed="1.00" length="2.59" width="4.00" shape="214.50,140.70 210.50,140.70 210.50,142.70 214.50,142.70 214.50,140.70 210.50,140.70"/>
    </edge>
    <edge id=":J100_w1" function="walkingarea">
        <lane id=":J100_w1_0" index="0" allow="pedestrian" speed="1.00" length="2.59" width="4.00" shape="210.50,134.30 214.50,134.30 214.50,132.30 210.50,132.30 210.50,134.30 214.50,134.30"/>
    </edge>
    <edge id=":J101_0" function="internal">
        <lane id=":J101_0_0" index="0" disallow="pedestrian" speed="6.51" length="4.75" shape="223.40,144.70 223.05,142.25 222.00,140.50 221.80,140.38"/>
    </edge>
    <edge id=":J101_1" function="internal">
        <lane id=":J101_1_0" index="0" disallow="pedestrian" speed="13.89" length="14.40" shape="223.40,144.70 223.40,130.30"/>
    </edge>
    <edge id=":J101_2" function="internal">
        <lane id=":J101_2_0" index="0" disallow="pedestrian" speed="8.00" length="4.07" shape="223.40,144.70 223.95,140.85 224.04,140.70"/>
    </edge>
    <edge id=":J101_12" function="internal">
        <lane id=":J101_12_0" index="0" disallow="pedestrian" speed="6.51" length="4.28" shape="221.80,140.38 220.25,139.45 217.80,139.10"/>
    </edge>
    <edge id=":J101_13" function="internal">
        <lane id=":J101_13_0" index="0" disallow="pedestrian" speed="8.00" length="10.13" shape="224.04,140.70 225.60,138.10 228.35,136.45 232.20,135.90"/>
    </edge>
    <edge id=":J101_3" function="internal">
        <lane id=":J101_3_0" index="0" disallow="pedestrian" speed="6.51" length="9.03" shape="232.20,139.10 229.75,139.45 228.00,140.50 226.95,142.25 226.60,144.70"/>
    </edge>
    <edge id=":J101_4" function="internal">
        <lane id=":J101_4_0" index="0" disallow="pedestrian" speed="13.89" length="14.40" shape="232.20,139.10 217.80,139.10"/>
    </edge>
    <edge id=":J101_5" function="internal">
        <lane id=":J101_5_0" index="0" disallow="pedestrian" speed="8.00" length="14.19" shape="232.20,139.10 228.35,138.55 225.60,136.90 223.95,134.15 223.40,130.30"/>
    </edge>
    <edge id=":J101_6" function="internal">
        <lane id=":J101_6_0" index="0" disallow="pedestrian" speed="6.51" length="4.75" shape="226.60,130.30 226.95,132.75 228.00,134.50 228.20,134.62"/>
    </edge>
    <edge id=":J101_7" function="internal">
        <lane id=":J101_7_0" index="0" disallow="pedestrian" speed="13.89" length="14.40" shape="226.60,130.30 226.60,144.70"/>
    </edge>
    <edge id=":J101_8" function="internal">
        <lane id=":J101_8_0" index="0" disallow="pedestrian" speed="8.00" length="4.07" shape="226.60,130.30 226.05,134.15 225.96,134.30"/>
    </edge>
    <edge id=":J101_14" function="internal">
        <lane id=":J101_14_0" index="0" disallow="pedestrian" speed="6.51" length="4.28" shape="228.20,134.62 229.75,135.55 232.20,135.90"/>
    </edge>
    <edge id=":J101_15" function="internal">
        <lane id=":J101_15_0" index="0" disallow="pedestrian" speed="8.00" length="10.13" shape="225.96,134.30 224.40,136.90 221.65,138.55 217.80,139.10"/>
    </edge>
    <edge id=":J101_9" function="internal">
        <lane id=":J101_9_0" index="0" disallow="pedestrian" speed="6.51" length="9.03" shape="217.80,135.90 220.25,135.55 222.00,134.50 223.05,132.75 223.40,130.30"/>
    </edge>
    <edge id=":J101_10" function="internal">
        <lane id=":J101_10_0" index="0" disallow="pedestrian" speed="13.89" length="14.40" shape="217.80,135.90 232.20,135.90"/>
    </edge>
    <edge id=":J101_11" function="internal">
        <lane id=":J101_11_0" index="0" disallow="pedestrian" speed="8.00" length="14.19" shape="217.80,135.90 221.65,136.45 224.40,138.10 226.05,140.85 226.60,144.70"/>
    </edge>
    <edge id=":J101_c0" function="crossing" crossingEdges="-E448 E448">
        <lane id=":J101_c0_0" index="0" allow="pedestrian" speed="1.00" length="6.40" width="4.00" shape="228.20,142.70 221.80,142.70"/>
    </edge>
    <edge id=":J101_c1" function="crossing" crossingEdges="E100 -E100">
        <lane id=":J101_c1_0" index="0" allow="pedestrian" speed="1.00" length="6.40" width="4.00" shape="230.20,134.30 230.20,140.70"/>
    </edge>
    <edge id=":J101_c2" function="crossing" crossingEdges="E449 -E449">
        <lane id=":J101_c2_0" index="0" allow="pedestrian" speed="1.00" length="6.40" width="4.00" shape="221.80,132.30 228.20,132.30"/>
    </edge>
    <edge id=":J101_c3" function="crossing" crossingEdges="-E99 E99">
        <lane id=":J101_c3_0" index="0" allow="pedestrian" speed="1.00" length="6.40" width="4.00" shape="219.80,140.70 219.80,134.30"/>
    </edge>
    <edge id=":J101_w0" function="walkingarea">
        <lane id=":J101_w0_0" index="0" allow="pedestrian" speed="1.00" length="3.30" width="4.00" shape="217.80,140.70 217.80,142.70 219.80,144.70 221.80,144.70 221.69,143.48 221.36,142.48 220.80,141.70 220.02,141.14 219.02,140.81"/>
    </edge>
    <edge id=":J101_w1" function="walkingarea">
        <lane id=":J101_w1_0" index="0" allow="pedestrian" speed="1.00" length="3.30" width="4.00" shape="228.20,144.70 230.20,144.70 232.20,142.70 232.20,140.70 230.98,140.81 229.98,141.14 229.20,141.70 228.64,142.48 228.31,143.48"/>
    </edge>
    <edge id=":J101_w2" function="walkingarea">
        <lane id=":J101_w2_0" index="0" allow="pedestrian" speed="1.00" length="3.30" width="4.00" shape="232.20,134.30 232.20,132.30 230.20,130.30 228.20,130.30 228.31,131.52 228.64,132.52 229.20,133.30 229.98,133.86 230.98,134.19"/>
    </edge>
    <edge id=":J101_w3" function="walkingarea">
        <lane id=":J101_w3_0" index="0" allow="pedestrian" speed="1.00" length="3.30" width="4.00" shape="221.80,130.30 219.80,130.30 217.80,132.30 217.80,134.30 219.02,134.19 220.02,133.86 220.80,133.30 221.36,132.52 221.69,131.52"/>
    </edge>
    <edge id=":J102_0" function="internal">
        <lane id=":J102_0_0" index="0" disallow="pedestrian" speed="13.89" length="4.00" shape="239.50,139.10 235.50,139.10"/>
    </edge>
    <edge id=":J102_1" function="internal">
        <lane id=":J102_1_0" index="0" disallow="pedestrian" speed="13.89" length="4.00" shape="235.50,135.90 239.50,135.90"/>
    </edge>
    <edge id=":J102_c0" function="crossing" crossingEdges="E101 -E101">
        <lane id=":J102_c0_0" index="0" allow="pedestrian" speed="1.00" length="6.40" width="4.00" shape="237.50,134.30 237.50,140.70"/>
    </edge>
    <edge id=":J102_c1" function="crossing" crossingEdges="-E100 E100">
        <lane id=":J102_c1_0" index="0" allow="pedestrian" speed="1.00" length="6.40" width="4.00" shape="237.50,140.70 237.50,134.30"/>
    </edge>
    <edge id=":J102_w0" function="walkingarea">
        <lane id=":J102_w0_0" index="0" allow="pedestrian" speed="1.00" length="2.59" width="4.00" shape="239.50,140.70 235.50,140.70 235.50,142.70 239.50,142.70 239.50,140.70 235.50,140.70"/>
    </edge>
    <edge id=":J102_w1" function="walkingarea">
        <lane id=":J102_w1_0" index="0" allow="pedestrian" speed="1.00" length="2.59" width="4.00" shape="235.50,134.30 239.50,134.30 239.50,132.30 235.50,132.30 235.50,134.30 239.50,134.30"/>
    </edge>
    <edge id=":J103_0" function="internal">
        <lane id=":J103_0_0" index="0" disallow="pedestrian" speed="13.89" length="4.00" shape="252.00,139.10 248.00,139.10"/>
    </edge>
    <edge id=":J103_1" function="internal">
        <lane id=":J103_1_0" index="0" disallow="pedestrian" speed="13.89" length="4.00" shape="248.00,135.90 252.00,135.90"/>
    </edge>
    <edge id=":J103_c0" function="crossing" crossingEdges="E102 -E102">
        <lane id=":J103_c0_0" index="0" allow="pedestrian" speed="1.00" length="6.40" width="4.00" shape="250.00,134.30 250.00,140.70"/>
    </edge>
    <edge id=":J103_c1" function="crossing" crossingEdges="-E101 E101">
        <lane id=":J103_c1_0" index="0" allow="pedestrian" speed="1.00" length="6.40" width="4.00" shape="250.00,140.70 250.00,134.30"/>
    </edge>
    <edge id=":J103_w0" function="walkingarea">
        <lane id=":J103_w0_0" index="0" allow="pedestrian" speed="1.00" length="2.59" width="4.00" shape="252.00,140.70 248.00,140.70 248.00,142.70 252.00,142.70 252.00,140.70 248.00,140.70"/>
    </edge>
    <edge id=":J103_w1" function="walkingarea">
        <lane id=":J103_w1_0" index="0" allow="pedestrian" speed="1.00" length="2.59" width="4.00" shape="248.00,134.30 252.00,134.30 252.00,132.30 248.00,132.30 248.00,134.30 252.00,134.30"/>
    </edge>
    <edge id=":J104_0" function="internal">
        <lane id=":J104_0_0" index="0" disallow="pedestrian" speed="13.89" length="4.00" shape="264.50,139.10 260.50,139.10"/>
    </edge>
    <edge id=":J104_1" function="internal">
        <lane id=":J104_1_0" index="0" disallow="pedestrian" speed="13.89" length="4.00" shape="260.50,135.90 264.50,135.90"/>
    </edge>
    <edge id=":J104_c0" function="crossing" crossingEdges="E103 -E103">
        <lane id=":J104_c0_0" index="0" allow="pedestrian" speed="1.00" length="6.40" width="4.00" shape="262.50,134.30 262.50,140.70"/>
    </edge>
    <edge id=":J104_c1" function="crossing" crossingEdges="-E102 E102">
        <lane id=":J104_c1_0" index="0" allow="pedestrian" speed="1.00" length="6.40" width="4.00" shape="262.50,140.70 262.50,134.30"/>
    </edge>
    <edge id=":J104_w0" function="walkingarea">
        <lane id=":J104_w0_0" index="0" allow="pedestrian" speed="1.00" length="2.59" width="4.00" shape="264.50,140.70 260.50,140.70 260.50,142.70 264.50,142.70 264.50,140.70 260.50,140.70"/>
    </edge>
    <edge id=":J104_w1" function="walkingarea">
        <lane id=":J104_w1_0" index="0" allow="pedestrian" speed="1.00" length="2.59" width="4.00" shape="260.50,134.30 264.50,134.30 264.50,132.30 260.50,132.30 260.50,134.30 264.50,134.30"/>
    </edge>
    <edge id=":J105_0" function="internal">
        <lane id=":J105_0_0" index="0" disallow="pedestrian" speed="6.51" length="4.75" shape="273.40,144.70 273.05,142.25 272.00,140.50 271.80,140.38"/>
    </edge>
    <edge id=":J105_1" function="internal">
        <lane id=":J105_1_0" index="0" disallow="pedestrian" speed="13.89" length="14.40" shape="273.40,144.70 273.40,130.30"/>
    </edge>
    <edge id=":J105_2" function="internal">
        <lane id=":J105_2_0" index="0" disallow="pedestrian" speed="8.00" length="4.07" shape="273.40,144.70 273.95,140.85 274.04,140.70"/>
    </edge>
    <edge id=":J105_12" function="internal">
        <lane id=":J105_12_0" index="0" disallow="pedestrian" speed="6.51" length="4.28" shape="271.80,140.38 270.25,139.45 267.80,139.10"/>
    </edge>
    <edge id=":J105_13" function="internal">
        <lane id=":J105_13_0" index="0" disallow="pedestrian" speed="8.00" length="10.13" shape="274.04,140.70 275.60,138.10 278.35,136.45 282.20,135.90"/>
    </edge>
    <edge id=":J105_3" function="internal">
        <lane id=":J105_3_0" index="0" disallow="pedestrian" speed="6.51" length="9.03" shape="282.20,139.10 279.75,139.45 278.00,140.50 276.95,142.25 276.60,144.70"/>
    </edge>
    <edge id=":J105_4" function="internal">
        <lane id=":J105_4_0" index="0" disallow="pedestrian" speed="13.89" length="14.40" shape="282.20,139.10 267.80,139.10"/>
    </edge>
    <edge id=":J105_5" function="internal">
        <lane id=":J105_5_0" index="0" disallow="pedestrian" speed="8.00" length="14.19" shape="282.20,139.10 278.35,138.55 275.60,136.90 273.95,134.15 273.40,130.30"/>
    </edge>
    <edge id=":J105_6" function="internal">
        <lane id=":J105_6_0" index="0" disallow="pedestrian" speed="6.51" length="4.75" shape="276.60,130.30 276.95,132.75 278.00,134.50 278.20,134.62"/>
    </edge>
    <edge id=":J105_7" function="internal">
        <lane id=":J105_7_0" index="0" disallow="pedestrian" speed="13.89" length="14.40" shape="276.60,130.30 276.60,144.70"/>
    </edge>
    <edge id=":J105_8" function="internal">
        <lane id=":J105_8_0" index="0" disallow="pedestrian" speed="8.00" length="4.07" shape="276.60,130.30 276.05,134.15 275.96,134.30"/>
    </edge>
    <edge id=":J105_14" function="internal">
        <lane id=":J105_14_0" index="0" disallow="pedestrian" speed="6.51" length="4.28" shape="278.20,134.62 279.75,135.55 282.20,135.90"/>
    </edge>
    <edge id=":J105_15" function="internal">
        <lane id=":J105_15_0" index="0" disallow="pedestrian" speed="8.00" length="10.13" shape="275.96,134.30 274.40,136.90 271.65,138.55 267.80,139.10"/>
    </edge>
    <edge id=":J105_9" function="internal">
        <lane id=":J105_9_0" index="0" disallow="pedestrian" speed="6.51" length="9.03" shape="267.80,135.90 270.25,135.55 272.00,134.50 273.05,132.75 273.40,130.30"/>
    </edge>
    <edge id=":J105_10" function="internal">
        <lane id=":J105_10_0" index="0" disallow="pedestrian" speed="13.89" length="14.40" shape="267.80,135.90 282.20,135.90"/>
    </edge>
    <edge id=":J105_11" function="internal">
        <lane id=":J105_11_0" index="0" disallow="pedestrian" speed="8.00" length="14.19" shape="267.80,135.90 271.65,136.45 274.40,138.10 276.05,140.85 276.60,144.70"/>
    </edge>
    <edge id=":J105_c0" function="crossing" crossingEdges="E215 -E215">
        <lane id=":J105_c0_0" index="0" allow="pedestrian" speed="1.00" length="6.40" width="4.00" shape="278.20,142.70 271.80,142.70"/>
    </edge>
    <edge id=":J105_c1" function="crossing" crossingEdges="E104 -E104">
        <lane id=":J105_c1_0" index="0" allow="pedestrian" speed="1.00" length="6.40" width="4.00" shape="280.20,134.30 280.20,140.70"/>
    </edge>
    <edge id=":J105_c2" function="crossing" crossingEdges="E351 -E351">
        <lane id=":J105_c2_0" index="0" allow="pedestrian" speed="1.00" length="6.40" width="4.00" shape="271.80,132.30 278.20,132.30"/>
    </edge>
    <edge id=":J105_c3" function="crossing" crossingEdges="-E103 E103">
        <lane id=":J105_c3_0" index="0" allow="pedestrian" speed="1.00" length="6.40" width="4.00" shape="269.80,140.70 269.80,134.30"/>
    </edge>
    <edge id=":J105_w0" function="walkingarea">
        <lane id=":J105_w0_0" index="0" allow="pedestrian" speed="1.00" length="3.30" width="4.00" shape="267.80,140.70 267.80,142.70 269.80,144.70 271.80,144.70 271.69,143.48 271.36,142.48 270.80,141.70 270.02,141.14 269.02,140.81"/>
    </edge>
    <edge id=":J105_w1" function="walkingarea">
        <lane id=":J105_w1_0" index="0" allow="pedestrian" speed="1.00" length="3.30" width="4.00" shape="278.20,144.70 280.20,144.70 282.20,142.70 282.20,140.70 280.98,140.81 279.98,141.14 279.20,141.70 278.64,142.48 278.31,143.48"/>
    </edge>
    <edge id=":J105_w2" function="walkingarea">
        <lane id=":J105_w2_0" index="0" allow="pedestrian" speed="1.00" length="3.30" width="4.00" shape="282.20,134.30 282.20,132.30 280.20,130.30 278.20,130.30 278.31,131.52 278.64,132.52 279.20,133.30 279.98,133.86 280.98,134.19"/>
    </edge>
    <edge id=":J105_w3" function="walkingarea">
        <lane id=":J105_w3_0" index="0" allow="pedestrian" speed="1.00" length="3.30" width="4.00" shape="271.80,130.30 269.80,130.30 267.80,132.30 267.80,134.30 269.02,134.19 270.02,133.86 270.80,133.30 271.36,132.52 271.69,131.52"/>
    </edge>
    <edge id=":J106_0" function="internal">
        <lane id=":J106_0_0" index="0" disallow="pedestrian" speed="13.89" length="4.00" shape="289.50,139.10 285.50,139.10"/>
    </edge>
    <edge id=":J106_1" function="internal">
        <lane id=":J106_1_0" index="0" disallow="pedestrian" speed="13.89" length="4.00" shape="285.50,135.90 289.50,135.90"/>
    </edge>
    <edge id=":J106_c0" function="crossing" crossingEdges="E105 -E105">
        <lane id=":J106_c0_0" index="0" allow="pedestrian" speed="1.00" length="6.40" width="4.00" shape="287.50,134.30 287.50,140.70"/>
    </edge>
    <edge id=":J106_c1" function="crossing" crossingEdges="-E104 E104">
        <lane id=":J106_c1_0" index="0" allow="pedestrian" speed="1.00" length="6.40" width="4.00" shape="287.50,140.70 287.50,134.30"/>
    </edge>
    <edge id=":J106_w0" function="walkingarea">
        <lane id=":J106_w0_0" index="0" allow="pedestrian" speed="1.00" length="2.59" width="4.00" shape="289.50,140.70 285.50,140.70 285.50,142.70 289.50,142.70 289.50,140.70 285.50,140.70"/>
    </edge>
    <edge id=":J106_w1" function="walkingarea">
        <lane id=":J106_w1_0" index="0" allow="pedestrian" speed="1.00" length="2.59" width="4.00" shape="285.50,134.30 289.50,134.30 289.50,132.30 285.50,132.30 285.50,134.30 289.50,134.30"/>
    </edge>
    <edge id=":J107_0" function="internal">
        <lane id=":J107_0_0" index="0" disallow="pedestrian" speed="13.89" length="4.00" shape="302.00,139.10 298.00,139.10"/>
    </edge>
    <edge id=":J107_1" function="internal">
        <lane id=":J107_1_0" index="0" disallow="pedestrian" speed="13.89" length="4.00" shape="298.00,135.90 302.00,135.90"/>
    </edge>
    <edge id=":J107_c0" function="crossing" crossingEdges="E106 -E106">
        <lane id=":J107_c0_0" index="0" allow="pedestrian" speed="1.00" length="6.40" width="4.00" shape="300.00,134.30 300.00,140.70"/>
    </edge>
    <edge id=":J107_c1" function="crossing" crossingEdges="-E105 E105">
        <lane id=":J107_c1_0" index="0" allow="pedestrian" speed="1.00" length="6.40" width="4.00" shape="300.00,140.70 300.00,134.30"/>
    </edge>
    <edge id=":J107_w0" function="walkingarea">
        <lane id=":J107_w0_0" index="0" allow="pedestrian" speed="1.00" length="2.59" width="4.00" shape="302.00,140.70 298.00,140.70 298.00,142.70 302.00,142.70 302.00,140.70 298.00,140.70"/>
    </edge>
    <edge id=":J107_w1" function="walkingarea">
        <lane id=":J107_w1_0" index="0" allow="pedestrian" speed="1.00" length="2.59" width="4.00" shape="298.00,134.30 302.00,134.30 302.00,132.30 298.00,132.30 298.00,134.30 302.00,134.30"/>
    </edge>
    <edge id=":J108_0" function="internal">
        <lane id=":J108_0_0" index="0" disallow="pedestrian" speed="13.89" length="4.00" shape="314.50,139.10 310.50,139.10"/>
    </edge>
    <edge id=":J108_1" function="internal">
        <lane id=":J108_1_0" index="0" disallow="pedestrian" speed="13.89" length="4.00" shape="310.50,135.90 314.50,135.90"/>
    </edge>
    <edge id=":J108_c0" function="crossing" crossingEdges="E107 -E107">
        <lane id=":J108_c0_0" index="0" allow="pedestrian" speed="1.00" length="6.40" width="4.00" shape="312.50,134.30 312.50,140.70"/>
    </edge>
    <edge id=":J108_c1" function="crossing" crossingEdges="-E106 E106">
        <lane id=":J108_c1_0" index="0" allow="pedestrian" speed="1.00" length="6.40" width="4.00" shape="312.50,140.70 312.50,134.30"/>
    </edge>
    <edge id=":J108_w0" function="walkingarea">
        <lane id=":J108_w0_0" index="0" allow="pedestrian" speed="1.00" length="2.59" width="4.00" shape="314.50,140.70 310.50,140.70 310.50,142.70 314.50,142.70 314.50,140.70 310.50,140.70"/>
    </edge>
    <edge id=":J108_w1" function="walkingarea">
        <lane id=":J108_w1_0" index="0" allow="pedestrian" speed="1.00" length="2.59" width="4.00" shape="310.50,134.30 314.50,134.30 314.50,132.30 310.50,132.30 310.50,134.30 314.50,134.30"/>
    </edge>
    <edge id=":J109_0" function="internal">
        <lane id=":J109_0_0" index="0" disallow="pedestrian" speed="6.51" length="4.75" shape="323.40,144.70 323.05,142.25 322.00,140.50 321.80,140.38"/>
    </edge>
    <edge id=":J109_1" function="internal">
        <lane id=":J109_1_0" index="0" disallow="pedestrian" speed="13.89" length="14.40" shape="323.40,144.70 323.40,130.30"/>
    </edge>
    <edge id=":J109_2" function="internal">
        <lane id=":J109_2_0" index="0" disallow="pedestrian" speed="8.00" length="4.07" shape="323.40,144.70 323.95,140.85 324.04,140.70"/>
    </edge>
    <edge id=":J109_12" function="internal">
        <lane id=":J109_12_0" index="0" disallow="pedestrian" speed="6.51" length="4.28" shape="321.80,140.38 320.25,139.45 317.80,139.10"/>
    </edge>
    <edge id=":J109_13" function="internal">
        <lane id=":J109_13_0" index="0" disallow="pedestrian" speed="8.00" length="10.13" shape="324.04,140.70 325.60,138.10 328.35,136.45 332.20,135.90"/>
    </edge>
    <edge id=":J109_3" function="internal">
        <lane id=":J109_3_0" index="0" disallow="pedestrian" speed="6.51" length="9.03" shape="332.20,139.10 329.75,139.45 328.00,140.50 326.95,142.25 326.60,144.70"/>
    </edge>
    <edge id=":J109_4" function="internal">
        <lane id=":J109_4_0" index="0" disallow="pedestrian" speed="13.89" length="14.40" shape="332.20,139.10 317.80,139.10"/>
    </edge>
    <edge id=":J109_5" function="internal">
        <lane id=":J109_5_0" index="0" disallow="pedestrian" speed="8.00" length="14.19" shape="332.20,139.10 328.35,138.55 325.60,136.90 323.95,134.15 323.40,130.30"/>
    </edge>
    <edge id=":J109_6" function="internal">
        <lane id=":J109_6_0" index="0" disallow="pedestrian" speed="6.51" length="4.75" shape="326.60,130.30 326.95,132.75 328.00,134.50 328.20,134.62"/>
    </edge>
    <edge id=":J109_7" function="internal">
        <lane id=":J109_7_0" index="0" disallow="pedestrian" speed="13.89" length="14.40" shape="326.60,130.30 326.60,144.70"/>
    </edge>
    <edge id=":J109_8" function="internal">
        <lane id=":J109_8_0" index="0" disallow="pedestrian" speed="8.00" length="4.07" shape="326.60,130.30 326.05,134.15 325.96,134.30"/>
    </edge>
    <edge id=":J109_14" function="internal">
        <lane id=":J109_14_0" index="0" disallow="pedestrian" speed="6.51" length="4.28" shape="328.20,134.62 329.75,135.55 332.20,135.90"/>
    </edge>
    <edge id=":J109_15" function="internal">
        <lane id=":J109_15_0" index="0" disallow="pedestrian" speed="8.00" length="10.13" shape="325.96,134.30 324.40,136.90 321.65,138.55 317.80,139.10"/>
    </edge>
    <edge id=":J109_9" function="internal">
        <lane id=":J109_9_0" index="0" disallow="pedestrian" speed="6.51" length="9.03" shape="317.80,135.90 320.25,135.55 322.00,134.50 323.05,132.75 323.40,130.30"/>
    </edge>
    <edge id=":J109_10" function="internal">
        <lane id=":J109_10_0" index="0" disallow="pedestrian" speed="13.89" length="14.40" shape="317.80,135.90 332.20,135.90"/>
    </edge>
    <edge id=":J109_11" function="internal">
        <lane id=":J109_11_0" index="0" disallow="pedestrian" speed="8.00" length="14.19" shape="317.80,135.90 321.65,136.45 324.40,138.10 326.05,140.85 326.60,144.70"/>
    </edge>
    <edge id=":J109_c0" function="crossing" crossingEdges="-E383 E383">
        <lane id=":J109_c0_0" index="0" allow="pedestrian" speed="1.00" length="6.40" width="4.00" shape="328.20,142.70 321.80,142.70"/>
    </edge>
    <edge id=":J109_c1" function="crossing" crossingEdges="E108 -E108">
        <lane id=":J109_c1_0" index="0" allow="pedestrian" speed="1.00" length="6.40" width="4.00" shape="330.20,134.30 330.20,140.70"/>
    </edge>
    <edge id=":J109_c2" function="crossing" crossingEdges="E384 -E384">
        <lane id=":J109_c2_0" index="0" allow="pedestrian" speed="1.00" length="6.40" width="4.00" shape="321.80,132.30 328.20,132.30"/>
    </edge>
    <edge id=":J109_c3" function="crossing" crossingEdges="-E107 E107">
        <lane id=":J109_c3_0" index="0" allow="pedestrian" speed="1.00" length="6.40" width="4.00" shape="319.80,140.70 319.80,134.30"/>
    </edge>
    <edge id=":J109_w0" function="walkingarea">
        <lane id=":J109_w0_0" index="0" allow="pedestrian" speed="1.00" length="3.30" width="4.00" shape="317.80,140.70 317.80,142.70 319.80,144.70 321.80,144.70 321.69,143.48 321.36,142.48 320.80,141.70 320.02,141.14 319.02,140.81"/>
    </edge>